git is free software!!!
new line.
11111111111
